[General]
network = Network
sim-time-limit = 100s 

#**.standardHost.numTcpApps = 1 

**.stanica.tempSensor.initialTemperature = 28°C 
**.stanica.windSensor.initialWindSpeed = 8 m/s 
